/*--------------------------------*- C++ -*----------------------------------*\
  =========                 |
  \\      /  F ield         | OpenFOAM: The Open Source CFD Toolbox
   \\    /   O peration     | Website:  https://openfoam.org
    \\  /    A nd           | Version:  8
     \\/     M anipulation  |
\*---------------------------------------------------------------------------*/
FoamFile
{
    version     2.0;
    format      ascii;
    class       volScalarField;
    location    "0";
    object      epsilon;
}
// * * * * * * * * * * * * * * * * * * * * * * * * * * * * * * * * * * * * * //

dimensions      [0 2 -3 0 0 0 0];

internalField   uniform 14.855;

boundaryField
{
    plasmaInlet
    {
//	type		cylic;
        type            zeroGradient;
    }
    plasmaOutlet
    {
//	type		cyclic;
        type            zeroGradient;
    }
    upperWall
    {
        type            epsilonWallFunction;
        value           uniform 14.855;
    }
    lowerWall
    {
        type            slip;
    }
    frontAndBack
    {
        type            empty;
    }

    inlet
    {
        type            fixedValue;
        value           uniform 14.855;
    }

    upperWall_upstream
    {
        type            epsilonWallFunction;
        value           uniform 14.855;
    }

    lowerWall_upstream
    {
        type            slip;
    }

    frontAndBack_upstream
    {
        type            empty;
    }

    upperWall_downstream
    {
        type            epsilonWallFunction;
        value           uniform 14.855;
    }

    lowerWall_downstream
    {
        type            slip;
    }

    frontAndBack_downstream
    {
        type            empty;
    }

    outlet
    {
        type            zeroGradient;
    }
}


// ************************************************************************* //
