/*--------------------------------*- C++ -*----------------------------------*\
  =========                 |
  \\      /  F ield         | OpenFOAM: The Open Source CFD Toolbox
   \\    /   O peration     | Website:  https://openfoam.org
    \\  /    A nd           | Version:  8
     \\/     M anipulation  |
\*---------------------------------------------------------------------------*/
FoamFile
{
    version     2.0;
    format      ascii;
    class       volScalarField;
    object      p;
}
// * * * * * * * * * * * * * * * * * * * * * * * * * * * * * * * * * * * * * //

dimensions      [0 2 -2 0 0 0 0];

internalField   uniform 0;

boundaryField
{
    plasmaInlet
    {
        type            zeroGradient;
//	type		cyclic;
    }

    plasmaOutlet
    {
        type            zeroGradient;
    }

    upperWall
    {
        type            zeroGradient;
    }

    lowerWall
    {
        type            zeroGradient;
    }

    frontAndBack
    {
        type            empty;
    }

    inlet
    {
        type            zeroGradient;
    }

    upperWall_upstream
    {
        type            noSlip;
    }

    lowerWall_upstream
    {
        type            slip;
    }

    frontAndBack_upstream
    {
        type            empty;
    }

    upperWall_downstream
    {
        type            noSlip;
    }

    lowerWall_downstream
    {
        type            slip;
    }

    frontAndBack_downstream
    {
        type            empty;
    }

    outlet
    {
        type            zeroGradient;
    }
}

// ************************************************************************* //
