/*--------------------------------*- C++ -*----------------------------------*\
  =========                 |
  \\      /  F ield         | OpenFOAM: The Open Source CFD Toolbox
   \\    /   O peration     | Website:  https://openfoam.org
    \\  /    A nd           | Version:  8
     \\/     M anipulation  |
\*---------------------------------------------------------------------------*/
FoamFile
{
    version     2.0;
    format      ascii;
    class       volVectorField;
    object      U;
}
// * * * * * * * * * * * * * * * * * * * * * * * * * * * * * * * * * * * * * //

dimensions      [0 1 -1 0 0 0 0];

internalField   uniform (0 0 0);
//internalField   uniform (0.219 0 0);

boundaryField
{
    plasmaInlet
    {
        type            zeroGradient;
    }

    plasmaOutlet
    {
        type            zeroGradient;
//	type		cyclic;
    }

    upperWall
    {
        type            noSlip;
    }

    lowerWall
    {
        type            slip;
    }

    frontAndBack
    {
        type            empty;
    }
    
    inlet
    {
        type            fixedValue;
        value           uniform (0.219 0 0);
    }

    upperWall_upstream
    {
        type            noSlip;
    }

    lowerWall_upstream
    {
        type            slip;
    }

    frontAndBack_upstream
    {
        type            empty;
    }

    upperWall_downstream
    {
        type            noSlip;
    }

    lowerWall_downstream
    {
        type            slip;
    }

    frontAndBack_downstream
    {
        type            empty;
    }

    outlet
    {
        type            zeroGradient;
    }
}

// ************************************************************************* //
