FoamFile
{
    version     2.0;
    format      ascii;
    class       dictionary;
    location    "system";
    object      controlDict;
}

application     simpleFoam;
startFrom       startTime;
startTime       0;
stopAt          endTime;
endTime         200;
deltaT          1.0;
adjustTimeStep  no;
maxCo           0.9;
writeControl    timeStep;
writeInterval   10;
purgeWrite      0;
writeFormat     ascii;
writePrecision  6;
writeCompression off;
timeFormat      general;
timePrecision   6;
runTimeModifiable true;

functions
{
//    #includeFunc residuals(U,p,k,epsilon);
}
