/*--------------------------------*- C++ -*----------------------------------*\
  =========                 |
  \\      /  F ield         | OpenFOAM: The Open Source CFD Toolbox
   \\    /   O peration     | Website:  https://openfoam.org
    \\  /    A nd           | Version:  8
     \\/     M anipulation  |
\*---------------------------------------------------------------------------*/
FoamFile
{
    version     2.0;
    format      ascii;
    class       featureEdgeMesh;
    location    "constant/triSurface";
    object      channel_AB_2-wall.eMesh;
}
// * * * * * * * * * * * * * * * * * * * * * * * * * * * * * * * * * * * * * //


// points:

756
(
(0 0.011 0)
(0 0.0109863 0.000548305)
(0 0.0109453 0.00109525)
(0 0.0108771 0.00163946)
(0 0.0107819 0.00217961)
(0 0.0106599 0.00271433)
(0 0.0105113 0.00324231)
(0 0.0103366 0.00376222)
(0 0.0101362 0.00427278)
(0 0.00991066 0.00477272)
(0 0.00966044 0.00526079)
(0 0.0093862 0.00573579)
(0 0.00908863 0.00619652)
(0 0.00876846 0.00664185)
(0 0.00842649 0.00707066)
(0 0.00806357 0.0074819)
(0 0.00768061 0.00787454)
(0 0.00727854 0.00824759)
(0 0.00685839 0.00860015)
(0 0.00642118 0.00893132)
(0 0.00596801 0.00924028)
(0 0.0055 0.00952628)
(0 0.00501832 0.00978859)
(0 0.00452416 0.0100266)
(0 0.00401875 0.0102396)
(0 0.00350335 0.0104272)
(0 0.00297925 0.0105889)
(0 0.00244773 0.0107242)
(0 0.00191013 0.0108329)
(0 0.00136778 0.0109146)
(0 0.000822031 0.0109692)
(0 0.000274238 0.0109966)
(0 -0.000274238 0.0109966)
(0 -0.000822031 0.0109692)
(0 -0.00136778 0.0109146)
(0 -0.00191013 0.0108329)
(0 -0.00244773 0.0107242)
(0 -0.00297925 0.0105889)
(0 -0.00350335 0.0104272)
(0 -0.00401875 0.0102396)
(0 -0.00452416 0.0100266)
(0 -0.00501832 0.00978859)
(0 -0.0055 0.00952628)
(0 -0.00596801 0.00924028)
(0 -0.00642118 0.00893132)
(0 -0.00685839 0.00860015)
(0 -0.00727854 0.00824759)
(0 -0.00768061 0.00787454)
(0 -0.00806357 0.0074819)
(0 -0.00842649 0.00707066)
(0 -0.00876846 0.00664185)
(0 -0.00908863 0.00619652)
(0 -0.0093862 0.00573579)
(0 -0.00966044 0.00526079)
(0 -0.00991066 0.00477272)
(0 -0.0101362 0.00427278)
(0 -0.0103366 0.00376222)
(0 -0.0105113 0.00324231)
(0 -0.0106599 0.00271433)
(0 -0.0107819 0.00217961)
(0 -0.0108771 0.00163946)
(0 -0.0109453 0.00109525)
(0 -0.0109863 0.000548305)
(0 -0.011 -3.77327e-17)
(0 -0.0109863 -0.000548305)
(0 -0.0109453 -0.00109525)
(0 -0.0108771 -0.00163946)
(0 -0.0107819 -0.00217961)
(0 -0.0106599 -0.00271433)
(0 -0.0105113 -0.00324231)
(0 -0.0103366 -0.00376222)
(0 -0.0101362 -0.00427278)
(0 -0.00991066 -0.00477272)
(0 -0.00966044 -0.00526079)
(0 -0.0093862 -0.00573579)
(0 -0.00908863 -0.00619652)
(0 -0.00876846 -0.00664185)
(0 -0.00842649 -0.00707066)
(0 -0.00806357 -0.0074819)
(0 -0.00768061 -0.00787454)
(0 -0.00727854 -0.00824759)
(0 -0.00685839 -0.00860015)
(0 -0.00642118 -0.00893132)
(0 -0.00596801 -0.00924028)
(0 -0.0055 -0.00952628)
(0 -0.00501832 -0.00978859)
(0 -0.00452416 -0.0100266)
(0 -0.00401875 -0.0102396)
(0 -0.00350335 -0.0104272)
(0 -0.00297925 -0.0105889)
(0 -0.00244773 -0.0107242)
(0 -0.00191013 -0.0108329)
(0 -0.00136778 -0.0109146)
(0 -0.000822031 -0.0109692)
(0 -0.000274238 -0.0109966)
(0 0.000274238 -0.0109966)
(0 0.000822031 -0.0109692)
(0 0.00136778 -0.0109146)
(0 0.00191013 -0.0108329)
(0 0.00244773 -0.0107242)
(0 0.00297925 -0.0105889)
(0 0.00350335 -0.0104272)
(0 0.00401875 -0.0102396)
(0 0.00452416 -0.0100266)
(0 0.00501832 -0.00978859)
(0 0.0055 -0.00952628)
(0 0.00596801 -0.00924028)
(0 0.00642118 -0.00893132)
(0 0.00685839 -0.00860015)
(0 0.00727854 -0.00824759)
(0 0.00768061 -0.00787454)
(0 0.00806357 -0.0074819)
(0 0.00842649 -0.00707066)
(0 0.00876846 -0.00664185)
(0 0.00908863 -0.00619652)
(0 0.0093862 -0.00573579)
(0 0.00966044 -0.00526079)
(0 0.00991066 -0.00477272)
(0 0.0101362 -0.00427278)
(0 0.0103366 -0.00376222)
(0 0.0105113 -0.00324231)
(0 0.0106599 -0.00271433)
(0 0.0107819 -0.00217961)
(0 0.0108771 -0.00163946)
(0 0.0109453 -0.00109525)
(0 0.0109863 -0.000548305)
(0.22 0.0109863 0.000548305)
(0.22 0.011 0)
(0.22 0.0109453 0.00109525)
(0.22 0.0108771 0.00163946)
(0.22 0.0107819 0.00217961)
(0.22 0.0106599 0.00271433)
(0.22 0.0105113 0.00324231)
(0.22 0.0103366 0.00376222)
(0.22 0.0101362 0.00427278)
(0.22 0.00991066 0.00477272)
(0.22 0.00966044 0.00526079)
(0.22 0.0093862 0.00573579)
(0.22 0.00908863 0.00619652)
(0.22 0.00876846 0.00664185)
(0.22 0.00842649 0.00707066)
(0.22 0.00806357 0.0074819)
(0.22 0.00768061 0.00787454)
(0.22 0.00727854 0.00824759)
(0.22 0.00685839 0.00860015)
(0.22 0.00642118 0.00893132)
(0.22 0.00596801 0.00924028)
(0.22 0.0055 0.00952628)
(0.22 0.00501832 0.00978859)
(0.22 0.00452416 0.0100266)
(0.22 0.00401875 0.0102396)
(0.22 0.00350335 0.0104272)
(0.22 0.00297925 0.0105889)
(0.22 0.00244773 0.0107242)
(0.22 0.00191013 0.0108329)
(0.22 0.00136778 0.0109146)
(0.22 0.000822031 0.0109692)
(0.22 0.000274238 0.0109966)
(0.22 -0.000274238 0.0109966)
(0.22 -0.000822031 0.0109692)
(0.22 -0.00136778 0.0109146)
(0.22 -0.00191013 0.0108329)
(0.22 -0.00244773 0.0107242)
(0.22 -0.00297925 0.0105889)
(0.22 -0.00350335 0.0104272)
(0.22 -0.00401875 0.0102396)
(0.22 -0.00452416 0.0100266)
(0.22 -0.00501832 0.00978859)
(0.22 -0.0055 0.00952628)
(0.22 -0.00596801 0.00924028)
(0.22 -0.00642118 0.00893132)
(0.22 -0.00685839 0.00860015)
(0.22 -0.00727854 0.00824759)
(0.22 -0.00768061 0.00787454)
(0.22 -0.00806357 0.0074819)
(0.22 -0.00842649 0.00707066)
(0.22 -0.00876846 0.00664185)
(0.22 -0.00908863 0.00619652)
(0.22 -0.0093862 0.00573579)
(0.22 -0.00966044 0.00526079)
(0.22 -0.00991066 0.00477272)
(0.22 -0.0101362 0.00427278)
(0.22 -0.0103366 0.00376222)
(0.22 -0.0105113 0.00324231)
(0.22 -0.0106599 0.00271433)
(0.22 -0.0107819 0.00217961)
(0.22 -0.0108771 0.00163946)
(0.22 -0.0109453 0.00109525)
(0.22 -0.0109863 0.000548305)
(0.22 -0.011 -3.77327e-17)
(0.22 -0.0109863 -0.000548305)
(0.22 -0.0109453 -0.00109525)
(0.22 -0.0108771 -0.00163946)
(0.22 -0.0107819 -0.00217961)
(0.22 -0.0106599 -0.00271433)
(0.22 -0.0105113 -0.00324231)
(0.22 -0.0103366 -0.00376222)
(0.22 -0.0101362 -0.00427278)
(0.22 -0.00991066 -0.00477272)
(0.22 -0.00966044 -0.00526079)
(0.22 -0.0093862 -0.00573579)
(0.22 -0.00908863 -0.00619652)
(0.22 -0.00876846 -0.00664185)
(0.22 -0.00842649 -0.00707066)
(0.22 -0.00806357 -0.0074819)
(0.22 -0.00768061 -0.00787454)
(0.22 -0.00727854 -0.00824759)
(0.22 -0.00685839 -0.00860015)
(0.22 -0.00642118 -0.00893132)
(0.22 -0.00596801 -0.00924028)
(0.22 -0.0055 -0.00952628)
(0.22 -0.00501832 -0.00978859)
(0.22 -0.00452416 -0.0100266)
(0.22 -0.00401875 -0.0102396)
(0.22 -0.00350335 -0.0104272)
(0.22 -0.00297925 -0.0105889)
(0.22 -0.00244773 -0.0107242)
(0.22 -0.00191013 -0.0108329)
(0.22 -0.00136778 -0.0109146)
(0.22 -0.000822031 -0.0109692)
(0.22 -0.000274238 -0.0109966)
(0.22 0.000274238 -0.0109966)
(0.22 0.000822031 -0.0109692)
(0.22 0.00136778 -0.0109146)
(0.22 0.00191013 -0.0108329)
(0.22 0.00244773 -0.0107242)
(0.22 0.00297925 -0.0105889)
(0.22 0.00350335 -0.0104272)
(0.22 0.00401875 -0.0102396)
(0.22 0.00452416 -0.0100266)
(0.22 0.00501832 -0.00978859)
(0.22 0.0055 -0.00952628)
(0.22 0.00596801 -0.00924028)
(0.22 0.00642118 -0.00893132)
(0.22 0.00685839 -0.00860015)
(0.22 0.00727854 -0.00824759)
(0.22 0.00768061 -0.00787454)
(0.22 0.00806357 -0.0074819)
(0.22 0.00842649 -0.00707066)
(0.22 0.00876846 -0.00664185)
(0.22 0.00908863 -0.00619652)
(0.22 0.0093862 -0.00573579)
(0.22 0.00966044 -0.00526079)
(0.22 0.00991066 -0.00477272)
(0.22 0.0101362 -0.00427278)
(0.22 0.0103366 -0.00376222)
(0.22 0.0105113 -0.00324231)
(0.22 0.0106599 -0.00271433)
(0.22 0.0107819 -0.00217961)
(0.22 0.0108771 -0.00163946)
(0.22 0.0109453 -0.00109525)
(0.22 0.0109863 -0.000548305)
(0.03 0.0109863 0.000548305)
(0.03 0.011 0)
(0.03 0.0109453 0.00109525)
(0.03 0.0108771 0.00163946)
(0.03 0.0107819 0.00217961)
(0.03 0.0106599 0.00271433)
(0.03 0.0105113 0.00324231)
(0.03 0.0103366 0.00376222)
(0.03 0.0101362 0.00427278)
(0.03 0.00991066 0.00477272)
(0.03 0.00966044 0.00526079)
(0.03 0.0093862 0.00573579)
(0.03 0.00908863 0.00619652)
(0.03 0.00876846 0.00664185)
(0.03 0.00842649 0.00707066)
(0.03 0.00806357 0.0074819)
(0.03 0.00768061 0.00787454)
(0.03 0.00727854 0.00824759)
(0.03 0.00685839 0.00860015)
(0.03 0.00642118 0.00893132)
(0.03 0.00596801 0.00924028)
(0.03 0.0055 0.00952628)
(0.03 0.00501832 0.00978859)
(0.03 0.00452416 0.0100266)
(0.03 0.00401875 0.0102396)
(0.03 0.00350335 0.0104272)
(0.03 0.00297925 0.0105889)
(0.03 0.00244773 0.0107242)
(0.03 0.00191013 0.0108329)
(0.03 0.00136778 0.0109146)
(0.03 0.000822031 0.0109692)
(0.03 0.000274238 0.0109966)
(0.03 -0.000274238 0.0109966)
(0.03 -0.000822031 0.0109692)
(0.03 -0.00136778 0.0109146)
(0.03 -0.00191013 0.0108329)
(0.03 -0.00244773 0.0107242)
(0.03 -0.00297925 0.0105889)
(0.03 -0.00350335 0.0104272)
(0.03 -0.00401875 0.0102396)
(0.03 -0.00452416 0.0100266)
(0.03 -0.00501832 0.00978859)
(0.03 -0.0055 0.00952628)
(0.03 -0.00596801 0.00924028)
(0.03 -0.00642118 0.00893132)
(0.03 -0.00685839 0.00860015)
(0.03 -0.00727854 0.00824759)
(0.03 -0.00768061 0.00787454)
(0.03 -0.00806357 0.0074819)
(0.03 -0.00842649 0.00707066)
(0.03 -0.00876846 0.00664185)
(0.03 -0.00908863 0.00619652)
(0.03 -0.0093862 0.00573579)
(0.03 -0.00966044 0.00526079)
(0.03 -0.00991066 0.00477272)
(0.03 -0.0101362 0.00427278)
(0.03 -0.0103366 0.00376222)
(0.03 -0.0105113 0.00324231)
(0.03 -0.0106599 0.00271433)
(0.03 -0.0107819 0.00217961)
(0.03 -0.0108771 0.00163946)
(0.03 -0.0109453 0.00109525)
(0.03 -0.0109863 0.000548305)
(0.03 -0.011 -3.77327e-17)
(0.03 -0.0109863 -0.000548305)
(0.03 -0.0109453 -0.00109525)
(0.03 -0.0108771 -0.00163946)
(0.03 -0.0107819 -0.00217961)
(0.03 -0.0106599 -0.00271433)
(0.03 -0.0105113 -0.00324231)
(0.03 -0.0103366 -0.00376222)
(0.03 -0.0101362 -0.00427278)
(0.03 -0.00991066 -0.00477272)
(0.03 -0.00966044 -0.00526079)
(0.03 -0.0093862 -0.00573579)
(0.03 -0.00908863 -0.00619652)
(0.03 -0.00876846 -0.00664185)
(0.03 -0.00842649 -0.00707066)
(0.03 -0.00806357 -0.0074819)
(0.03 -0.00768061 -0.00787454)
(0.03 -0.00727854 -0.00824759)
(0.03 -0.00685839 -0.00860015)
(0.03 -0.00642118 -0.00893132)
(0.03 -0.00596801 -0.00924028)
(0.03 -0.0055 -0.00952628)
(0.03 -0.00501832 -0.00978859)
(0.03 -0.00452416 -0.0100266)
(0.03 -0.00401875 -0.0102396)
(0.03 -0.00350335 -0.0104272)
(0.03 -0.00297925 -0.0105889)
(0.03 -0.00244773 -0.0107242)
(0.03 -0.00191013 -0.0108329)
(0.03 -0.00136778 -0.0109146)
(0.03 -0.000822031 -0.0109692)
(0.03 -0.000274238 -0.0109966)
(0.03 0.000274238 -0.0109966)
(0.03 0.000822031 -0.0109692)
(0.03 0.00136778 -0.0109146)
(0.03 0.00191013 -0.0108329)
(0.03 0.00244773 -0.0107242)
(0.03 0.00297925 -0.0105889)
(0.03 0.00350335 -0.0104272)
(0.03 0.00401875 -0.0102396)
(0.03 0.00452416 -0.0100266)
(0.03 0.00501832 -0.00978859)
(0.03 0.0055 -0.00952628)
(0.03 0.00596801 -0.00924028)
(0.03 0.00642118 -0.00893132)
(0.03 0.00685839 -0.00860015)
(0.03 0.00727854 -0.00824759)
(0.03 0.00768061 -0.00787454)
(0.03 0.00806357 -0.0074819)
(0.03 0.00842649 -0.00707066)
(0.03 0.00876846 -0.00664185)
(0.03 0.00908863 -0.00619652)
(0.03 0.0093862 -0.00573579)
(0.03 0.00966044 -0.00526079)
(0.03 0.00991066 -0.00477272)
(0.03 0.0101362 -0.00427278)
(0.03 0.0103366 -0.00376222)
(0.03 0.0105113 -0.00324231)
(0.03 0.0106599 -0.00271433)
(0.03 0.0107819 -0.00217961)
(0.03 0.0108771 -0.00163946)
(0.03 0.0109453 -0.00109525)
(0.03 0.0109863 -0.000548305)
(0.032 0.0109863 0.000548305)
(0.032 0.011 0)
(0.032 0.0109863 -0.000548305)
(0.032 0.0109453 0.00109525)
(0.032 0.0108771 0.00163946)
(0.032 0.0107819 0.00217961)
(0.032 0.0106599 0.00271433)
(0.032 0.0105113 0.00324231)
(0.032 0.0103366 0.00376222)
(0.032 0.0101362 0.00427278)
(0.032 0.00991066 0.00477272)
(0.032 0.00966044 0.00526079)
(0.032 0.0093862 0.00573579)
(0.032 0.00908863 0.00619652)
(0.032 0.00876846 0.00664185)
(0.032 0.00842649 0.00707066)
(0.032 0.00806357 0.0074819)
(0.032 0.00768061 0.00787454)
(0.032 0.00727854 0.00824759)
(0.032 0.00685839 0.00860015)
(0.032 0.00642118 0.00893132)
(0.032 0.00596801 0.00924028)
(0.032 0.0055 0.00952628)
(0.032 0.00501832 0.00978859)
(0.032 0.00452416 0.0100266)
(0.032 0.00401875 0.0102396)
(0.032 0.00350335 0.0104272)
(0.032 0.00297925 0.0105889)
(0.032 0.00244773 0.0107242)
(0.032 0.00191013 0.0108329)
(0.032 0.00136778 0.0109146)
(0.032 0.000822031 0.0109692)
(0.032 0.000274238 0.0109966)
(0.032 -0.000274238 0.0109966)
(0.032 -0.000822031 0.0109692)
(0.032 -0.00136778 0.0109146)
(0.032 -0.00191013 0.0108329)
(0.032 -0.00244773 0.0107242)
(0.032 -0.00297925 0.0105889)
(0.032 -0.00350335 0.0104272)
(0.032 -0.00401875 0.0102396)
(0.032 -0.00452416 0.0100266)
(0.032 -0.00501832 0.00978859)
(0.032 -0.0055 0.00952628)
(0.032 -0.00596801 0.00924028)
(0.032 -0.00642118 0.00893132)
(0.032 -0.00685839 0.00860015)
(0.032 -0.00727854 0.00824759)
(0.032 -0.00768061 0.00787454)
(0.032 -0.00806357 0.0074819)
(0.032 -0.00842649 0.00707066)
(0.032 -0.00876846 0.00664185)
(0.032 -0.00908863 0.00619652)
(0.032 -0.0093862 0.00573579)
(0.032 -0.00966044 0.00526079)
(0.032 -0.00991066 0.00477272)
(0.032 -0.0101362 0.00427278)
(0.032 -0.0103366 0.00376222)
(0.032 -0.0105113 0.00324231)
(0.032 -0.0106599 0.00271433)
(0.032 -0.0107819 0.00217961)
(0.032 -0.0108771 0.00163946)
(0.032 -0.0109453 0.00109525)
(0.032 -0.0109863 0.000548305)
(0.032 -0.011 -3.77327e-17)
(0.032 -0.0109863 -0.000548305)
(0.032 -0.0109453 -0.00109525)
(0.032 -0.0108771 -0.00163946)
(0.032 -0.0107819 -0.00217961)
(0.032 -0.0105113 -0.00324231)
(0.032 -0.0106599 -0.00271433)
(0.032 -0.0103366 -0.00376222)
(0.032 -0.0101362 -0.00427278)
(0.032 -0.00991066 -0.00477272)
(0.032 -0.00966044 -0.00526079)
(0.032 -0.0093862 -0.00573579)
(0.032 -0.00908863 -0.00619652)
(0.032 -0.00876846 -0.00664185)
(0.032 -0.00842649 -0.00707066)
(0.032 -0.00806357 -0.0074819)
(0.032 -0.00768061 -0.00787454)
(0.032 -0.00727854 -0.00824759)
(0.032 -0.00685839 -0.00860015)
(0.032 -0.00642118 -0.00893132)
(0.032 -0.00596801 -0.00924028)
(0.032 -0.0055 -0.00952628)
(0.032 -0.00501832 -0.00978859)
(0.032 -0.00452416 -0.0100266)
(0.032 -0.00401875 -0.0102396)
(0.032 -0.00350335 -0.0104272)
(0.032 -0.00297925 -0.0105889)
(0.032 -0.00244773 -0.0107242)
(0.032 -0.00191013 -0.0108329)
(0.032 -0.00136778 -0.0109146)
(0.032 -0.000822031 -0.0109692)
(0.032 -0.000274238 -0.0109966)
(0.032 0.000274238 -0.0109966)
(0.032 0.000822031 -0.0109692)
(0.032 0.00136778 -0.0109146)
(0.032 0.00191013 -0.0108329)
(0.032 0.00244773 -0.0107242)
(0.032 0.00297925 -0.0105889)
(0.032 0.00350335 -0.0104272)
(0.032 0.00401875 -0.0102396)
(0.032 0.00452416 -0.0100266)
(0.032 0.00501832 -0.00978859)
(0.032 0.0055 -0.00952628)
(0.032 0.00596801 -0.00924028)
(0.032 0.00642118 -0.00893132)
(0.032 0.00685839 -0.00860015)
(0.032 0.00727854 -0.00824759)
(0.032 0.00768061 -0.00787454)
(0.032 0.00806357 -0.0074819)
(0.032 0.00842649 -0.00707066)
(0.032 0.00876846 -0.00664185)
(0.032 0.00908863 -0.00619652)
(0.032 0.0093862 -0.00573579)
(0.032 0.00966044 -0.00526079)
(0.032 0.00991066 -0.00477272)
(0.032 0.0101362 -0.00427278)
(0.032 0.0103366 -0.00376222)
(0.032 0.0105113 -0.00324231)
(0.032 0.0106599 -0.00271433)
(0.032 0.0107819 -0.00217961)
(0.032 0.0108771 -0.00163946)
(0.032 0.0109453 -0.00109525)
(0.03 -0.00279295 -0.00286347)
(0.03 -0.00293221 -0.00272069)
(0.03 -0.00264674 -0.00299912)
(0.03 -0.00306418 -0.00257115)
(0.03 -0.00249396 -0.00312733)
(0.03 -0.00318853 -0.00241522)
(0.03 -0.00233497 -0.00324775)
(0.03 -0.00330496 -0.00225328)
(0.03 -0.00217019 -0.0033601)
(0.03 -0.00341316 -0.00208574)
(0.03 -0.002 -0.0034641)
(0.03 -0.00351289 -0.00191302)
(0.03 -0.00182484 -0.00355949)
(0.03 -0.00360388 -0.00173553)
(0.03 -0.00164515 -0.00364602)
(0.03 -0.0036859 -0.00155374)
(0.03 -0.00146136 -0.00372349)
(0.03 -0.00375877 -0.00136808)
(0.03 -0.00127395 -0.00379171)
(0.03 -0.00382229 -0.00117902)
(0.03 -0.00108336 -0.0038505)
(0.03 -0.00387631 -0.00098703)
(0.03 -0.000890084 -0.00389971)
(0.03 -0.00392069 -0.000792585)
(0.03 -0.000694593 -0.00393923)
(0.03 -0.00395532 -0.000596169)
(0.03 -0.000497375 -0.00396896)
(0.03 -0.00398012 -0.000398271)
(0.03 -0.00029892 -0.00398882)
(0.03 -0.00399503 -0.000199384)
(0.03 -9.97228e-05 -0.00399876)
(0.03 -0.004 -1.3721e-17)
(0.03 9.97228e-05 -0.00399876)
(0.03 -0.00399503 0.000199384)
(0.03 0.00029892 -0.00398882)
(0.03 -0.00398012 0.000398271)
(0.03 0.000497375 -0.00396896)
(0.03 -0.00395532 0.000596169)
(0.03 0.000694593 -0.00393923)
(0.03 -0.00392069 0.000792585)
(0.03 0.000890084 -0.00389971)
(0.03 -0.00387631 0.00098703)
(0.03 0.00108336 -0.0038505)
(0.03 -0.00382229 0.00117902)
(0.03 0.00127395 -0.00379171)
(0.03 -0.00375877 0.00136808)
(0.03 0.00146136 -0.00372349)
(0.03 -0.0036859 0.00155374)
(0.03 0.00164515 -0.00364602)
(0.03 -0.00360388 0.00173553)
(0.03 0.00182484 -0.00355949)
(0.03 -0.00351289 0.00191302)
(0.03 0.002 -0.0034641)
(0.03 -0.00341316 0.00208574)
(0.03 0.00217019 -0.0033601)
(0.03 -0.00330496 0.00225328)
(0.03 0.00233497 -0.00324775)
(0.03 -0.00318853 0.00241522)
(0.03 0.00249396 -0.00312733)
(0.03 -0.00306418 0.00257115)
(0.03 0.00264674 -0.00299912)
(0.03 -0.00293221 0.00272069)
(0.03 0.00279295 -0.00286347)
(0.03 -0.00279295 0.00286347)
(0.03 0.00293221 -0.00272069)
(0.03 0.00306418 -0.00257115)
(0.03 -0.00264674 0.00299912)
(0.03 -0.00249396 0.00312733)
(0.03 -0.00233497 0.00324775)
(0.03 0.00318853 -0.00241522)
(0.03 0.00330496 -0.00225328)
(0.03 -0.00217019 0.0033601)
(0.03 0.00341316 -0.00208574)
(0.03 -0.002 0.0034641)
(0.03 0.00351289 -0.00191302)
(0.03 -0.00182484 0.00355949)
(0.03 -0.00164515 0.00364602)
(0.03 0.00360388 -0.00173553)
(0.03 0.0036859 -0.00155374)
(0.03 0.00375877 -0.00136808)
(0.03 -0.00146136 0.00372349)
(0.03 -0.00127395 0.00379171)
(0.03 -0.00108336 0.0038505)
(0.03 0.00382229 -0.00117902)
(0.03 0.00387631 -0.00098703)
(0.03 -0.000890084 0.00389971)
(0.03 0.00392069 -0.000792585)
(0.03 -0.000694593 0.00393923)
(0.03 0.00395532 -0.000596169)
(0.03 -0.000497375 0.00396896)
(0.03 0.00398012 -0.000398271)
(0.03 -0.00029892 0.00398882)
(0.03 -9.97228e-05 0.00399876)
(0.03 0.00399503 -0.000199384)
(0.03 0.004 0)
(0.03 9.97228e-05 0.00399876)
(0.03 0.00399503 0.000199384)
(0.03 0.00029892 0.00398882)
(0.03 0.00398012 0.000398271)
(0.03 0.000497375 0.00396896)
(0.03 0.00395532 0.000596169)
(0.03 0.000694593 0.00393923)
(0.03 0.000890084 0.00389971)
(0.03 0.00392069 0.000792585)
(0.03 0.00387631 0.00098703)
(0.03 0.00108336 0.0038505)
(0.03 0.00382229 0.00117902)
(0.03 0.00127395 0.00379171)
(0.03 0.00375877 0.00136808)
(0.03 0.00146136 0.00372349)
(0.03 0.0036859 0.00155374)
(0.03 0.00164515 0.00364602)
(0.03 0.00182484 0.00355949)
(0.03 0.00360388 0.00173553)
(0.03 0.00351289 0.00191302)
(0.03 0.002 0.0034641)
(0.03 0.00341316 0.00208574)
(0.03 0.00217019 0.0033601)
(0.03 0.00330496 0.00225328)
(0.03 0.00318853 0.00241522)
(0.03 0.00233497 0.00324775)
(0.03 0.00249396 0.00312733)
(0.03 0.00306418 0.00257115)
(0.03 0.00264674 0.00299912)
(0.03 0.00293221 0.00272069)
(0.03 0.00279295 0.00286347)
(0.0305 0.00399503 0.000199384)
(0.0305 0.004 0)
(0.0305 0.00398012 0.000398271)
(0.0305 0.00395532 0.000596169)
(0.0305 0.00392069 0.000792585)
(0.0305 0.00387631 0.00098703)
(0.0305 0.00382229 0.00117902)
(0.0305 0.00375877 0.00136808)
(0.0305 0.0036859 0.00155374)
(0.0305 0.00360388 0.00173553)
(0.0305 0.00351289 0.00191302)
(0.0305 0.00341316 0.00208574)
(0.0305 0.00330496 0.00225328)
(0.0305 0.00318853 0.00241522)
(0.0305 0.00306418 0.00257115)
(0.0305 0.00293221 0.00272069)
(0.0305 0.00279295 0.00286347)
(0.0305 0.00264674 0.00299912)
(0.0305 0.00249396 0.00312733)
(0.0305 0.00233497 0.00324775)
(0.0305 0.00217019 0.0033601)
(0.0305 0.002 0.0034641)
(0.0305 0.00182484 0.00355949)
(0.0305 0.00164515 0.00364602)
(0.0305 0.00146136 0.00372349)
(0.0305 0.00127395 0.00379171)
(0.0305 0.00108336 0.0038505)
(0.0305 0.000890084 0.00389971)
(0.0305 0.000694593 0.00393923)
(0.0305 0.000497375 0.00396896)
(0.0305 0.00029892 0.00398882)
(0.0305 9.97228e-05 0.00399876)
(0.0305 -9.97228e-05 0.00399876)
(0.0305 -0.00029892 0.00398882)
(0.0305 -0.000497375 0.00396896)
(0.0305 -0.000694593 0.00393923)
(0.0305 -0.000890084 0.00389971)
(0.0305 -0.00108336 0.0038505)
(0.0305 -0.00127395 0.00379171)
(0.0305 -0.00146136 0.00372349)
(0.0305 -0.00164515 0.00364602)
(0.0305 -0.00182484 0.00355949)
(0.0305 -0.002 0.0034641)
(0.0305 -0.00217019 0.0033601)
(0.0305 -0.00233497 0.00324775)
(0.0305 -0.00249396 0.00312733)
(0.0305 -0.00264674 0.00299912)
(0.0305 -0.00279295 0.00286347)
(0.0305 -0.00293221 0.00272069)
(0.0305 -0.00306418 0.00257115)
(0.0305 -0.00318853 0.00241522)
(0.0305 -0.00330496 0.00225328)
(0.0305 -0.00341316 0.00208574)
(0.0305 -0.00351289 0.00191302)
(0.0305 -0.00360388 0.00173553)
(0.0305 -0.0036859 0.00155374)
(0.0305 -0.00375877 0.00136808)
(0.0305 -0.00382229 0.00117902)
(0.0305 -0.00387631 0.00098703)
(0.0305 -0.00392069 0.000792585)
(0.0305 -0.00395532 0.000596169)
(0.0305 -0.00398012 0.000398271)
(0.0305 -0.00399503 0.000199384)
(0.0305 -0.004 -1.3721e-17)
(0.0305 -0.00399503 -0.000199384)
(0.0305 -0.00398012 -0.000398271)
(0.0305 -0.00395532 -0.000596169)
(0.0305 -0.00392069 -0.000792585)
(0.0305 -0.00387631 -0.00098703)
(0.0305 -0.00382229 -0.00117902)
(0.0305 -0.00375877 -0.00136808)
(0.0305 -0.0036859 -0.00155374)
(0.0305 -0.00360388 -0.00173553)
(0.0305 -0.00351289 -0.00191302)
(0.0305 -0.00341316 -0.00208574)
(0.0305 -0.00330496 -0.00225328)
(0.0305 -0.00318853 -0.00241522)
(0.0305 -0.00306418 -0.00257115)
(0.0305 -0.00293221 -0.00272069)
(0.0305 -0.00279295 -0.00286347)
(0.0305 -0.00264674 -0.00299912)
(0.0305 -0.00249396 -0.00312733)
(0.0305 -0.00233497 -0.00324775)
(0.0305 -0.00217019 -0.0033601)
(0.0305 -0.002 -0.0034641)
(0.0305 -0.00182484 -0.00355949)
(0.0305 -0.00164515 -0.00364602)
(0.0305 -0.00146136 -0.00372349)
(0.0305 -0.00127395 -0.00379171)
(0.0305 -0.00108336 -0.0038505)
(0.0305 -0.000890084 -0.00389971)
(0.0305 -0.000694593 -0.00393923)
(0.0305 -0.000497375 -0.00396896)
(0.0305 -0.00029892 -0.00398882)
(0.0305 -9.97228e-05 -0.00399876)
(0.0305 9.97228e-05 -0.00399876)
(0.0305 0.00029892 -0.00398882)
(0.0305 0.000497375 -0.00396896)
(0.0305 0.000694593 -0.00393923)
(0.0305 0.000890084 -0.00389971)
(0.0305 0.00108336 -0.0038505)
(0.0305 0.00127395 -0.00379171)
(0.0305 0.00146136 -0.00372349)
(0.0305 0.00164515 -0.00364602)
(0.0305 0.00182484 -0.00355949)
(0.0305 0.002 -0.0034641)
(0.0305 0.00217019 -0.0033601)
(0.0305 0.00233497 -0.00324775)
(0.0305 0.00249396 -0.00312733)
(0.0305 0.00264674 -0.00299912)
(0.0305 0.00279295 -0.00286347)
(0.0305 0.00293221 -0.00272069)
(0.0305 0.00306418 -0.00257115)
(0.0305 0.00318853 -0.00241522)
(0.0305 0.00330496 -0.00225328)
(0.0305 0.00341316 -0.00208574)
(0.0305 0.00351289 -0.00191302)
(0.0305 0.00360388 -0.00173553)
(0.0305 0.0036859 -0.00155374)
(0.0305 0.00375877 -0.00136808)
(0.0305 0.00382229 -0.00117902)
(0.0305 0.00387631 -0.00098703)
(0.0305 0.00392069 -0.000792585)
(0.0305 0.00395532 -0.000596169)
(0.0305 0.00398012 -0.000398271)
(0.0305 0.00399503 -0.000199384)
)


// edges:

756
(
(252 253)
(254 252)
(255 254)
(256 255)
(257 256)
(258 257)
(259 258)
(260 259)
(261 260)
(262 261)
(263 262)
(264 263)
(265 264)
(266 265)
(267 266)
(268 267)
(269 268)
(270 269)
(271 270)
(272 271)
(273 272)
(274 273)
(275 274)
(276 275)
(277 276)
(278 277)
(279 278)
(280 279)
(281 280)
(282 281)
(283 282)
(284 283)
(285 284)
(286 285)
(287 286)
(288 287)
(289 288)
(290 289)
(291 290)
(292 291)
(293 292)
(294 293)
(295 294)
(296 295)
(297 296)
(298 297)
(299 298)
(300 299)
(301 300)
(302 301)
(303 302)
(304 303)
(305 304)
(306 305)
(307 306)
(308 307)
(309 308)
(310 309)
(311 310)
(312 311)
(313 312)
(314 313)
(315 314)
(316 315)
(317 316)
(318 317)
(319 318)
(320 319)
(321 320)
(322 321)
(323 322)
(324 323)
(325 324)
(326 325)
(327 326)
(328 327)
(329 328)
(330 329)
(331 330)
(332 331)
(333 332)
(334 333)
(335 334)
(336 335)
(337 336)
(338 337)
(339 338)
(340 339)
(341 340)
(342 341)
(343 342)
(344 343)
(345 344)
(346 345)
(347 346)
(348 347)
(349 348)
(350 349)
(351 350)
(352 351)
(353 352)
(354 353)
(355 354)
(356 355)
(357 356)
(358 357)
(359 358)
(360 359)
(361 360)
(362 361)
(363 362)
(364 363)
(365 364)
(366 365)
(367 366)
(368 367)
(369 368)
(370 369)
(371 370)
(372 371)
(373 372)
(374 373)
(375 374)
(376 375)
(377 376)
(253 377)
(378 379)
(379 380)
(381 378)
(382 381)
(383 382)
(384 383)
(385 384)
(386 385)
(387 386)
(388 387)
(389 388)
(390 389)
(391 390)
(392 391)
(393 392)
(394 393)
(395 394)
(396 395)
(397 396)
(398 397)
(399 398)
(400 399)
(401 400)
(402 401)
(403 402)
(404 403)
(405 404)
(406 405)
(407 406)
(408 407)
(409 408)
(410 409)
(411 410)
(412 411)
(413 412)
(414 413)
(415 414)
(416 415)
(417 416)
(418 417)
(419 418)
(420 419)
(421 420)
(422 421)
(423 422)
(424 423)
(425 424)
(426 425)
(427 426)
(428 427)
(429 428)
(430 429)
(431 430)
(432 431)
(433 432)
(434 433)
(435 434)
(436 435)
(437 436)
(438 437)
(439 438)
(440 439)
(441 440)
(442 441)
(443 442)
(444 443)
(445 444)
(446 445)
(447 448)
(448 446)
(449 447)
(450 449)
(451 450)
(452 451)
(453 452)
(454 453)
(455 454)
(456 455)
(457 456)
(458 457)
(459 458)
(460 459)
(461 460)
(462 461)
(463 462)
(464 463)
(465 464)
(466 465)
(467 466)
(468 467)
(469 468)
(470 469)
(471 470)
(472 471)
(473 472)
(474 473)
(475 474)
(476 475)
(477 476)
(478 477)
(479 478)
(480 479)
(481 480)
(482 481)
(483 482)
(484 483)
(485 484)
(486 485)
(487 486)
(488 487)
(489 488)
(490 489)
(491 490)
(492 491)
(493 492)
(494 493)
(495 494)
(496 495)
(497 496)
(498 497)
(499 498)
(500 499)
(501 500)
(502 501)
(503 502)
(380 503)
(504 505)
(506 504)
(505 507)
(508 506)
(507 509)
(510 508)
(509 511)
(512 510)
(511 513)
(514 512)
(513 515)
(516 514)
(515 517)
(518 516)
(517 519)
(520 518)
(519 521)
(522 520)
(521 523)
(524 522)
(523 525)
(526 524)
(525 527)
(528 526)
(527 529)
(530 528)
(529 531)
(532 530)
(531 533)
(534 532)
(533 535)
(536 534)
(535 537)
(538 536)
(537 539)
(540 538)
(539 541)
(542 540)
(541 543)
(544 542)
(543 545)
(546 544)
(545 547)
(548 546)
(547 549)
(550 548)
(549 551)
(552 550)
(551 553)
(554 552)
(553 555)
(556 554)
(555 557)
(558 556)
(557 559)
(560 558)
(559 561)
(562 560)
(561 563)
(564 562)
(563 565)
(566 564)
(565 567)
(568 566)
(569 568)
(570 571)
(567 570)
(571 572)
(573 569)
(574 573)
(572 575)
(576 574)
(575 577)
(578 576)
(579 580)
(577 579)
(581 578)
(582 581)
(583 582)
(580 584)
(585 586)
(584 585)
(587 583)
(588 587)
(586 589)
(590 588)
(589 591)
(592 590)
(591 593)
(594 592)
(595 596)
(593 595)
(597 594)
(598 597)
(596 599)
(600 598)
(599 601)
(602 600)
(601 603)
(604 602)
(605 606)
(603 605)
(607 604)
(608 607)
(606 609)
(610 608)
(609 611)
(612 610)
(611 613)
(614 612)
(615 616)
(613 615)
(617 614)
(618 617)
(616 619)
(620 618)
(619 621)
(622 620)
(623 622)
(624 625)
(621 624)
(626 623)
(625 627)
(628 626)
(629 628)
(627 629)
(630 631)
(632 630)
(633 632)
(634 633)
(635 634)
(636 635)
(637 636)
(638 637)
(639 638)
(640 639)
(641 640)
(642 641)
(643 642)
(644 643)
(645 644)
(646 645)
(647 646)
(648 647)
(649 648)
(650 649)
(651 650)
(652 651)
(653 652)
(654 653)
(655 654)
(656 655)
(657 656)
(658 657)
(659 658)
(660 659)
(661 660)
(662 661)
(663 662)
(664 663)
(665 664)
(666 665)
(667 666)
(668 667)
(669 668)
(670 669)
(671 670)
(672 671)
(673 672)
(674 673)
(675 674)
(676 675)
(677 676)
(678 677)
(679 678)
(680 679)
(681 680)
(682 681)
(683 682)
(684 683)
(685 684)
(686 685)
(687 686)
(688 687)
(689 688)
(690 689)
(691 690)
(692 691)
(693 692)
(694 693)
(695 694)
(696 695)
(697 696)
(698 697)
(699 698)
(700 699)
(701 700)
(702 701)
(703 702)
(704 703)
(705 704)
(706 705)
(707 706)
(708 707)
(709 708)
(710 709)
(711 710)
(712 711)
(713 712)
(714 713)
(715 714)
(716 715)
(717 716)
(718 717)
(719 718)
(720 719)
(721 720)
(722 721)
(723 722)
(724 723)
(725 724)
(726 725)
(727 726)
(728 727)
(729 728)
(730 729)
(731 730)
(732 731)
(733 732)
(734 733)
(735 734)
(736 735)
(737 736)
(738 737)
(739 738)
(740 739)
(741 740)
(742 741)
(743 742)
(744 743)
(745 744)
(746 745)
(747 746)
(748 747)
(749 748)
(750 749)
(751 750)
(752 751)
(753 752)
(754 753)
(755 754)
(631 755)
(0 1)
(1 2)
(2 3)
(3 4)
(4 5)
(5 6)
(6 7)
(7 8)
(8 9)
(9 10)
(10 11)
(11 12)
(12 13)
(13 14)
(14 15)
(15 16)
(16 17)
(17 18)
(18 19)
(19 20)
(20 21)
(21 22)
(22 23)
(23 24)
(24 25)
(25 26)
(26 27)
(27 28)
(28 29)
(29 30)
(30 31)
(31 32)
(32 33)
(33 34)
(34 35)
(35 36)
(36 37)
(37 38)
(38 39)
(39 40)
(40 41)
(41 42)
(42 43)
(43 44)
(44 45)
(45 46)
(46 47)
(47 48)
(48 49)
(49 50)
(50 51)
(51 52)
(52 53)
(53 54)
(54 55)
(55 56)
(56 57)
(57 58)
(58 59)
(59 60)
(60 61)
(61 62)
(62 63)
(63 64)
(64 65)
(65 66)
(66 67)
(67 68)
(68 69)
(69 70)
(70 71)
(71 72)
(72 73)
(73 74)
(74 75)
(75 76)
(76 77)
(77 78)
(78 79)
(79 80)
(80 81)
(81 82)
(82 83)
(83 84)
(84 85)
(85 86)
(86 87)
(87 88)
(88 89)
(89 90)
(90 91)
(91 92)
(92 93)
(93 94)
(94 95)
(95 96)
(96 97)
(97 98)
(98 99)
(100 101)
(99 100)
(101 102)
(102 103)
(103 104)
(104 105)
(105 106)
(106 107)
(107 108)
(108 109)
(109 110)
(110 111)
(111 112)
(112 113)
(113 114)
(114 115)
(115 116)
(116 117)
(117 118)
(118 119)
(119 120)
(120 121)
(121 122)
(122 123)
(123 124)
(124 125)
(125 0)
(126 127)
(128 126)
(129 128)
(130 129)
(131 130)
(132 131)
(133 132)
(134 133)
(135 134)
(136 135)
(137 136)
(138 137)
(139 138)
(140 139)
(141 140)
(142 141)
(143 142)
(144 143)
(145 144)
(146 145)
(147 146)
(148 147)
(149 148)
(150 149)
(151 150)
(152 151)
(153 152)
(154 153)
(155 154)
(156 155)
(157 156)
(158 157)
(159 158)
(160 159)
(161 160)
(162 161)
(163 162)
(164 163)
(165 164)
(166 165)
(167 166)
(168 167)
(169 168)
(170 169)
(171 170)
(172 171)
(173 172)
(174 173)
(175 174)
(176 175)
(177 176)
(178 177)
(179 178)
(180 179)
(181 180)
(182 181)
(183 182)
(184 183)
(185 184)
(186 185)
(187 186)
(188 187)
(189 188)
(190 189)
(191 190)
(192 191)
(193 192)
(194 193)
(195 194)
(196 195)
(197 196)
(198 197)
(199 198)
(200 199)
(201 200)
(202 201)
(203 202)
(204 203)
(205 204)
(206 205)
(207 206)
(208 207)
(209 208)
(210 209)
(211 210)
(212 211)
(213 212)
(214 213)
(215 214)
(216 215)
(217 216)
(218 217)
(219 218)
(220 219)
(221 220)
(222 221)
(223 222)
(224 223)
(225 224)