/*--------------------------------*- C++ -*----------------------------------*\
  =========                 |
  \\      /  F ield         | OpenFOAM: The Open Source CFD Toolbox
   \\    /   O peration     | Website:  https://openfoam.org
    \\  /    A nd           | Version:  8
     \\/     M anipulation  |
\*---------------------------------------------------------------------------*/
FoamFile
{
    version     2.0;
    format      ascii;
    class       featureEdgeMesh;
    location    "constant/triSurface";
    object      channel_AB_2-inlet.eMesh;
}
// * * * * * * * * * * * * * * * * * * * * * * * * * * * * * * * * * * * * * //


// points:

39
(
(0 0.00879387 -0.00660816)
(0 0.00761997 -0.00793323)
(0 0.00624871 -0.00905282)
(0 0.0104339 -0.00348335)
(0 0.00974002 -0.00511195)
(0 0.00471562 -0.00993796)
(0 0.00306039 -0.0105657)
(0 0.0013259 -0.0109198)
(0 -0.000442925 -0.0109911)
(0 0.0108576 0.00176452)
(0 0.011 0)
(0 0.00974002 0.00511195)
(0 0.0104339 0.00348335)
(0 -0.00390065 -0.0102852)
(0 -0.0055 -0.00952628)
(0 -0.0069569 -0.00852065)
(0 -0.00220028 -0.0107777)
(0 -0.00823362 -0.00729435)
(0 -0.00929709 -0.00587912)
(0 -0.0101198 -0.00431163)
(0 0.00879387 0.00660816)
(0 0.00761997 0.00793323)
(0 0.00624871 0.00905282)
(0 0.00306039 0.0105657)
(0 0.00471562 0.00993796)
(0 0.0108576 -0.00176452)
(0 -0.0106804 -0.00263247)
(0 -0.0109643 -0.000885132)
(0 -0.0109643 0.000885132)
(0 0.0013259 0.0109198)
(0 -0.00220028 0.0107777)
(0 -0.000442925 0.0109911)
(0 -0.0106804 0.00263247)
(0 -0.0101198 0.00431163)
(0 -0.0055 0.00952628)
(0 -0.00390065 0.0102852)
(0 -0.00929709 0.00587912)
(0 -0.0069569 0.00852065)
(0 -0.00823362 0.00729435)
)


// edges:

39
(
(0 1)
(1 2)
(3 4)
(4 0)
(2 5)
(5 6)
(6 7)
(7 8)
(9 10)
(11 12)
(12 9)
(13 14)
(14 15)
(16 13)
(17 18)
(18 19)
(20 11)
(21 20)
(22 21)
(23 24)
(24 22)
(25 3)
(10 25)
(19 26)
(26 27)
(27 28)
(29 23)
(30 31)
(31 29)
(15 17)
(8 16)
(28 32)
(32 33)
(34 35)
(35 30)
(33 36)
(37 34)
(38 37)
(36 38)
)

// * * * * * * * * * * * * * * * * * * * * * * * * * * * * * * * * * * * * * //


// ************************************************************************* //
