/*--------------------------------*- C++ -*----------------------------------*\
  =========                 |
  \\      /  F ield         | OpenFOAM: The Open Source CFD Toolbox
   \\    /   O peration     | Website:  https://openfoam.org
    \\  /    A nd           | Version:  8
     \\/     M anipulation  |
\*---------------------------------------------------------------------------*/
FoamFile
{
    version     2.0;
    format      ascii;
    class       polyBoundaryMesh;
    location    "constant/polyMesh";
    object      boundary;
}
// * * * * * * * * * * * * * * * * * * * * * * * * * * * * * * * * * * * * * //

5
(
    inlet
    {
        type            cyclic;
        nFaces          50;
        startFace       12853;
	matchTolerance	0.250;
	transform	translational;
	separationVector (-0.220 0 0);
	neighbourPatch	outlet;
    }
    outlet
    {
        type            cyclic;
        nFaces          50;
        startFace       12903;
	matchTolerance	0.250;
	transform	translational;
	separationVector (0.220 0 0);
	neighbourPatch	inlet;
    }
    upperWall
    {
        type            wall;
        inGroups        List<word> 1(wall);
        nFaces          200;
        startFace       12953;
    }
    lowerWall
    {
        type            wall;
        inGroups        List<word> 1(wall);
        nFaces          134;
        startFace       13153;
    }
    frontAndBack
    {
        type            empty;
        inGroups        List<word> 1(empty);
        nFaces          13070;
        startFace       13287;
    }
)

// ************************************************************************* //
